T42/data/state_estimation/ES_Dx_03_2050_S_Bd/ES_Dx_03_2050_S_Bd_t9.csv
bus,vm_pu,va_degree,p_mw,q_mvar
1,0.999666,-0.000489,123.113612,54.659984
7966,1.026738,-0.038032,-1.856308,-0.727407
7967,1.032284,-0.032850,-6.437535,-2.522456
7968,1.032130,-0.032054,-2.310344,-0.905245
7969,1.031040,-0.034081,-3.974637,-1.557416
7970,1.029806,-0.034306,-3.334614,-1.306565
7971,1.032386,-0.031946,-2.374356,-0.930330
7972,1.031046,-0.031638,-0.896232,-0.351168
7973,1.038805,-0.033658,-3.916456,-1.534643
7974,1.038450,-0.032282,-1.216329,-0.476514
7975,1.023283,-0.029423,-2.054272,-0.804861
7976,1.024643,-0.029142,-5.464387,-2.141230
7977,1.024958,-0.029411,-3.724368,-1.459376
7978,1.040050,-0.033431,-0.773882,-0.303262
7979,1.040425,-0.033618,-2.187977,-0.857387
7980,1.024508,-0.028961,-1.856340,-0.727344
7981,1.029435,-0.042143,-3.404367,-1.333962
7982,1.040651,-0.033423,-0.191935,-0.075188
7983,1.039189,-0.034607,-3.142374,-1.231443
7984,1.038973,-0.033362,-2.572214,-1.007813
7985,1.025024,-0.036161,-0.368473,-0.144407
7986,1.032075,-0.032596,-0.338290,-0.132598
7987,1.024835,-0.029299,-0.360029,-0.141076
7988,1.030906,-0.032858,-0.333993,-0.130878
7989,1.039620,-0.032708,-0.333709,-0.130698
7990,1.040342,-0.033200,-0.360064,-0.141146
7991,1.025457,-0.028573,-0.336126,-0.131798
7992,1.025473,-0.028326,-0.351472,-0.137698
7993,1.039113,-0.033521,-0.402655,-0.157860
7994,1.033533,-0.031660,-0.413861,-0.162182
7995,1.024374,-0.028489,-0.339764,-0.133118
7996,1.039396,-0.033381,-0.403471,-0.158086
7997,1.031335,-0.032441,-0.375681,-0.147087
7998,1.024088,-0.029285,-0.368614,-0.144468
7999,1.041025,-0.032515,-0.446761,-0.175134
8000,1.025321,-0.027772,-0.347268,-0.135970
8001,1.040879,-0.033672,-0.464640,-0.182056
8002,1.024978,-0.028900,-0.349840,-0.137221
8003,1.024358,-0.028660,-0.349763,-0.137017
8004,1.024437,-0.029017,-0.346544,-0.135789
8005,1.038992,-0.033826,-0.353743,-0.138547
8006,1.024732,-0.029693,-0.479522,-0.187914
8007,1.039278,-0.033090,-0.347248,-0.136012
8395,1.028274,-0.042527,-0.212097,-0.092172
8396,1.027999,-0.041502,-0.215665,-0.093724
8397,1.028078,-0.041587,-0.116069,-0.049464
8398,1.029495,-0.042157,-0.136622,-0.059228
8399,1.029058,-0.041622,-0.080951,-0.034702
8400,1.038502,-0.034679,-0.062840,-0.026485
8401,1.038975,-0.033281,-0.328049,-0.142134
8402,1.039056,-0.034359,-0.250751,-0.106579
8403,1.028945,-0.041406,-0.143612,-0.060270
8404,1.023953,-0.029185,-0.078097,-0.033334
8405,1.023129,-0.029102,-0.174763,-0.074926
8406,1.023089,-0.028847,-0.050742,-0.021055
8407,1.028404,-0.041788,-0.239531,-0.101257
8408,1.022857,-0.028353,-0.169211,-0.071927
8409,1.022110,-0.029440,-0.033255,-0.013498
8410,1.023826,-0.028206,-0.125422,-0.054017
8411,1.029526,-0.041873,-0.091612,-0.038734
8412,1.039598,-0.034114,-0.243228,-0.102708
8413,1.029050,-0.040889,-0.135106,-0.058256
8414,1.023881,-0.028471,-0.061084,-0.025820
8415,1.029738,-0.042481,-0.116474,-0.049733
8416,1.029395,-0.041243,-0.142376,-0.059744
8417,1.023474,-0.028118,-0.121164,-0.051886
8418,1.022703,-0.028782,-0.236837,-0.100279
8419,1.029962,-0.042558,-0.147795,-0.062145
8420,1.029816,-0.042204,-0.084796,-0.036682
8421,1.022939,-0.029228,-0.134410,-0.058126
8422,1.025360,-0.028768,-0.138585,-0.060179
8423,1.024571,-0.029160,-0.217819,-0.094635
8424,1.038861,-0.034898,-0.331575,-0.143597
8425,1.038676,-0.033480,-0.082450,-0.035588
8426,1.040447,-0.034252,-0.194074,-0.083402
8427,1.039283,-0.034349,-0.061242,-0.025710
8428,1.030274,-0.041628,-0.042930,-0.017692
8429,1.030548,-0.042894,-1.154245,-0.379785
8430,1.024260,-0.028867,-0.087497,-0.038010
8431,1.023949,-0.030037,-0.184643,-0.080298
8432,1.038909,-0.032641,-0.241737,-0.102249
8433,1.038010,-0.033799,-0.243244,-0.103025
8434,1.039714,-0.033913,-0.153103,-0.064528
8435,1.022521,-0.029283,-0.232041,-0.098026
8436,1.023916,-0.029124,-0.088234,-0.036893
8437,1.024111,-0.028519,-0.181371,-0.077502
8438,1.039487,-0.034051,-0.054789,-0.022860
8439,1.024178,-0.028848,-0.056950,-0.023856
8440,1.039930,-0.032986,-0.308268,-0.133252
8441,1.039436,-0.032557,-0.197396,-0.085081
8442,1.038966,-0.032819,-0.062476,-0.026214
8443,1.039606,-0.033182,-0.062456,-0.026276
8444,1.039673,-0.033211,-0.279968,-0.119533
8445,1.030349,-0.041207,-0.068652,-0.029200
8446,1.039208,-0.032832,-0.169008,-0.071771
8447,1.039607,-0.033175,-0.228238,-0.096974
8448,1.040166,-0.032916,-0.070261,-0.029832
8449,1.040051,-0.032894,-0.158831,-0.067254
8450,1.041175,-0.032155,0.000051,-0.000035
8451,1.039859,-0.034471,-0.074449,-0.031978
8452,1.040044,-0.033942,-0.208811,-0.090355
8453,1.024150,-0.028101,-0.144845,-0.060910
8454,1.040560,-0.032987,-0.127178,-0.055047
8455,1.040837,-0.033149,-0.140671,-0.058954
8456,1.029198,-0.042068,-0.099131,-0.041640
8457,1.030346,-0.041972,-0.009149,-0.003641
8458,1.024788,-0.028203,-0.106828,-0.045456
8459,1.041026,-0.033062,-0.086947,-0.037747
8460,1.024374,-0.028447,-0.086237,-0.037400
8461,1.024244,-0.028727,-0.033098,-0.013456
8462,1.024975,-0.028190,-0.177845,-0.075895
8463,1.039315,-0.032749,-0.082315,-0.035476
8464,1.039499,-0.032825,-0.189029,-0.081111
8465,1.039575,-0.033501,-0.226595,-0.095140
8466,1.039979,-0.032709,-0.338070,-0.146849
8467,1.039977,-0.033340,-0.015056,-0.005912
8468,1.023720,-0.028324,-0.114964,-0.049222
8469,1.024737,-0.027799,-0.238430,-0.101185
8470,1.040069,-0.032992,-0.172604,-0.073550
8471,1.040240,-0.033005,-0.253214,-0.107145
8472,1.039760,-0.033085,-0.225670,-0.094750
8473,1.024523,-0.028195,-0.121871,-0.052069
8474,1.024565,-0.028295,-0.090163,-0.037812
8475,1.040014,-0.031762,-0.154234,-0.065022
8476,1.024022,-0.028254,-0.031011,-0.012548
8477,1.024126,-0.028481,-0.162265,-0.069521
8478,1.039975,-0.033086,-0.138640,-0.059982
8479,1.040411,-0.033123,-0.064720,-0.027330
8480,1.025148,-0.028414,-0.078869,-0.033899
8481,1.025180,-0.028313,-0.222562,-0.096594
8482,1.024737,-0.028468,-0.200196,-0.086003
8483,1.024694,-0.028125,-0.282875,-0.120982
8484,1.040262,-0.033008,-0.189033,-0.081766
8485,1.025990,-0.028841,-0.083929,-0.036234
8486,1.026832,-0.029270,-0.000013,0.000059
8487,1.041493,-0.033393,-0.291769,-0.125068
8488,1.041396,-0.033112,-0.087873,-0.036764
8489,1.024084,-0.028608,-0.055703,-0.023396
8490,1.024669,-0.029305,-0.071091,-0.030290
8491,1.024628,-0.028017,-0.170285,-0.072487
8492,1.024567,-0.028436,-0.135638,-0.058760
8493,1.040799,-0.033122,-0.186637,-0.079933
8494,1.041097,-0.032618,-0.046660,-0.019308
8495,1.041350,-0.033381,-0.136295,-0.058961
8496,1.041025,-0.033014,-0.078472,-0.033655
8497,1.040273,-0.033344,-0.254200,-0.108474
8498,1.025377,-0.029462,-0.299046,-0.128484
8499,1.040414,-0.033172,-0.133572,-0.057705
8500,1.040323,-0.034133,-0.339362,-0.147365
8501,1.040247,-0.033122,-0.086307,-0.037300
8502,1.040734,-0.033231,-0.154057,-0.064764
8503,1.025278,-0.028464,-0.313006,-0.134972
8504,1.040374,-0.032716,-0.069278,-0.029359
8505,1.041565,-0.032979,-0.134818,-0.058345
8506,1.041174,-0.031886,-0.296100,-0.127427
8507,1.041176,-0.032954,-0.071741,-0.030459
8508,1.024613,-0.028449,-0.087133,-0.037745
8509,1.025793,-0.028054,-0.081861,-0.035215
8510,1.040754,-0.033333,-0.080502,-0.034626
8511,1.024006,-0.028775,-0.215090,-0.093416
8512,1.041084,-0.033134,-0.203284,-0.088023
8513,1.040840,-0.032226,-0.299696,-0.128806
8514,1.040610,-0.032549,-0.195689,-0.084468
8515,1.040753,-0.033081,-0.242201,-0.102249
8516,1.026059,-0.029229,-0.101517,-0.042796
8517,1.041688,-0.032307,-0.287237,-0.123123
8518,1.041850,-0.033297,-0.093982,-0.039549
8519,1.025972,-0.028857,-0.286722,-0.122650
8520,1.041477,-0.033223,-0.118353,-0.050587
8521,1.025484,-0.028389,-0.298406,-0.128198
8522,1.025390,-0.028899,-0.128025,-0.055026
8523,1.023715,-0.028077,-0.202383,-0.087123
8524,1.025883,-0.028732,-0.207993,-0.090133
8525,1.025468,-0.028680,-0.055977,-0.023342
8526,1.025754,-0.028983,-0.173561,-0.074178
8527,1.041411,-0.033581,-0.088050,-0.036589
8528,1.024547,-0.028216,-0.044304,-0.018272
8529,1.025456,-0.027979,-0.074071,-0.031669
8530,1.041842,-0.032697,-0.265865,-0.112825
8531,1.040816,-0.032754,-0.083938,-0.036194
8532,1.025946,-0.028920,-0.077164,-0.033209
8533,1.040636,-0.033678,-0.019906,-0.007972
8534,1.024782,-0.027752,-0.198097,-0.085418
8535,1.041554,-0.033361,-0.072478,-0.031017
8536,1.041082,-0.033750,-0.052998,-0.022004
8537,1.025623,-0.028313,-0.084283,-0.036298
8538,1.025024,-0.027350,-0.083832,-0.036221
8539,1.039438,-0.033244,-0.331079,-0.143920
8540,1.040691,-0.032932,-0.112902,-0.048083
8541,1.040917,-0.033351,-0.175168,-0.074525
8542,1.040563,-0.032806,-0.131757,-0.057058
8543,1.024828,-0.027609,-0.170217,-0.072715
8544,1.024481,-0.028166,-0.219778,-0.095719
8545,1.039691,-0.032748,-0.151712,-0.063816
8546,1.025474,-0.028482,-0.318192,-0.137980
8547,1.025813,-0.028912,-0.172514,-0.073444
8548,1.024739,-0.028271,-0.252111,-0.106624
8549,1.039129,-0.032992,-0.168939,-0.071669
8550,1.038888,-0.032770,-0.172059,-0.073665
8551,1.024923,-0.028167,-0.039841,-0.016287
8552,1.039515,-0.032787,-0.049823,-0.020796
8553,1.040661,-0.032732,-0.097160,-0.040936
8554,1.040604,-0.032844,-0.056686,-0.023649
8555,1.040610,-0.032908,-0.207751,-0.089834
8556,1.040229,-0.033933,-0.073990,-0.031650
8557,1.025451,-0.028673,-0.154690,-0.065288
8558,1.039900,-0.033220,-0.207266,-0.089546
8559,1.040813,-0.032836,-0.047131,-0.019471
8560,1.039527,-0.032970,-0.185004,-0.079110
8561,1.023126,-0.028504,-0.076912,-0.032948
8562,1.024323,-0.028534,-0.130034,-0.056219
8563,1.039495,-0.033615,-0.160595,-0.067797
8564,1.039673,-0.033518,-0.062856,-0.026505
8565,1.040258,-0.032567,-0.188134,-0.080552
8566,1.025156,-0.027687,-0.119672,-0.051406
8567,1.040777,-0.032800,-0.280859,-0.119868
8568,1.040577,-0.033333,-0.201435,-0.086811
8569,1.040424,-0.032915,-0.172780,-0.073696
8570,1.024938,-0.028109,-0.175283,-0.074949
8571,1.024913,-0.028942,-0.197133,-0.084609
8572,1.024289,-0.029129,-0.098171,-0.041336
8573,1.040745,-0.033063,-0.116299,-0.049628
8574,1.024144,-0.029040,-0.288640,-0.124036
8575,1.040785,-0.033065,-0.177284,-0.075706
8576,1.025070,-0.028802,-0.086345,-0.037392
8577,1.040800,-0.032907,-0.127730,-0.055039
8578,1.024823,-0.028132,-0.027466,-0.011091
8579,1.039729,-0.033181,-0.178637,-0.077223
8580,1.039940,-0.032926,-0.065119,-0.027534
8581,1.024765,-0.027965,-0.066860,-0.028336
8582,1.041260,-0.033879,-0.139790,-0.060617
8583,1.040727,-0.032981,-0.030183,-0.012177
8584,1.024459,-0.028713,-0.187588,-0.080570
8585,1.039798,-0.033684,-0.202452,-0.087318
8586,1.041163,-0.032844,-0.063110,-0.026733
8587,1.024399,-0.028821,-0.190730,-0.081900
8588,1.040114,-0.032361,-0.319037,-0.138053
8589,1.024578,-0.028955,-0.090585,-0.037968
8590,1.025599,-0.028978,-0.799102,-0.255674
8591,1.040562,-0.033944,-0.210425,-0.091356
8592,1.039753,-0.032551,-0.220050,-0.096034
8593,1.030290,-0.031436,-0.331567,-0.143478
8594,1.030941,-0.031357,-0.179203,-0.077001
8595,1.024283,-0.027684,-0.220745,-0.096585
8596,1.025214,-0.029294,-0.181863,-0.078055
8597,1.031583,-0.031762,-0.130260,-0.056193
8598,1.024983,-0.028303,-0.262426,-0.111447
8599,1.040713,-0.032899,-0.073277,-0.031314
8600,1.024332,-0.029853,-0.248817,-0.105947
8601,1.024394,-0.028803,-0.148729,-0.062697
8602,1.024598,-0.028353,-0.049828,-0.020756
8603,1.024523,-0.029307,-0.310401,-0.133966
8604,1.025753,-0.029903,-0.208398,-0.089988
8605,1.040405,-0.032619,-0.082469,-0.035569
8606,1.039770,-0.033478,-0.106752,-0.045124
8607,1.040791,-0.033376,-0.131530,-0.056532
8608,1.024186,-0.028873,-0.081817,-0.035241
8609,1.039756,-0.033081,-0.233960,-0.098722
8610,1.031519,-0.031657,-0.128844,-0.055529
8611,1.024834,-0.029010,-0.237981,-0.100539
8612,1.040555,-0.033565,-0.071199,-0.030367
8613,1.039716,-0.033473,-0.054063,-0.022514
8614,1.025051,-0.029305,-0.332036,-0.144541
8615,1.023235,-0.029459,-0.143707,-0.063374
8616,1.023487,-0.028587,-0.226176,-0.095164
8617,1.024801,-0.028883,-0.148543,-0.062615
8618,1.024639,-0.029756,-0.147532,-0.062191
8619,1.023856,-0.029983,-0.074646,-0.031842
8620,1.023970,-0.028741,-0.083996,-0.036337
8621,1.040831,-0.032724,-0.067549,-0.028641
8622,1.039999,-0.033110,-0.232976,-0.098207
8623,1.023781,-0.029619,-0.192765,-0.082810
8624,1.039429,-0.032738,-0.219272,-0.095281
8625,1.031876,-0.031675,-0.082189,-0.035301
8626,1.030916,-0.032801,-0.097123,-0.040786
8627,1.041504,-0.032818,-0.109552,-0.046542
8628,1.038599,-0.032821,-0.181952,-0.077443
8629,1.039408,-0.033689,-0.092916,-0.039035
8630,1.040556,-0.034340,-0.140405,-0.060726
8631,1.039955,-0.033121,-0.077427,-0.033207
8632,1.024736,-0.029051,-0.027692,-0.011244
8633,1.023995,-0.029716,-0.087946,-0.038139
8634,1.040279,-0.033260,-0.216723,-0.093682
8635,1.025181,-0.029312,-0.208123,-0.090131
8636,1.024059,-0.029418,-0.226833,-0.095434
8637,1.038623,-0.033970,-1.101895,-0.361605
8638,1.039093,-0.034284,-0.124475,-0.053389
8639,1.039828,-0.034365,-0.123058,-0.052849
8640,1.039536,-0.033988,-0.166925,-0.070776
8641,1.024627,-0.028423,-0.313425,-0.135041
8642,1.040559,-0.033677,-0.105810,-0.044790
8643,1.030595,-0.032339,-0.074813,-0.031981
8644,1.024265,-0.029827,-0.097377,-0.041061
8645,1.031545,-0.033132,-0.190400,-0.081906
8646,1.040404,-0.033915,-0.072429,-0.030695
8647,1.040898,-0.033494,-0.104914,-0.044466
8648,1.031322,-0.032228,-0.218706,-0.095328
8649,1.041263,-0.033237,-0.112627,-0.047917
8650,1.023516,-0.028488,-0.264345,-0.112571
8651,1.039496,-0.032504,-0.133046,-0.057412
8652,1.031167,-0.033372,-0.150455,-0.063575
8653,1.031142,-0.033654,-0.054069,-0.022598
8654,1.024474,-0.028537,-0.045069,-0.018546
8655,1.039834,-0.033366,-0.175536,-0.075229
8656,1.039105,-0.032869,-0.129291,-0.055752
8657,1.024675,-0.029384,-0.353150,-0.154840
8658,1.031894,-0.032847,-0.202314,-0.087198
8659,1.024462,-0.027765,-0.122306,-0.052502
8660,1.030352,-0.033340,-0.081944,-0.035358
8661,1.031043,-0.033261,-0.118165,-0.050510
8662,1.040162,-0.033806,-0.066015,-0.027983
8663,1.040017,-0.034541,-0.114394,-0.048856
8664,1.031739,-0.033112,-0.052242,-0.021812
8665,1.040316,-0.034023,-0.136757,-0.059235
8666,1.024065,-0.028729,-0.100756,-0.042497
8667,1.024068,-0.029179,-0.329765,-0.142861
8668,1.031364,-0.032042,-0.254786,-0.107884
8669,1.040040,-0.033536,-0.260305,-0.111368
8670,1.031053,-0.032514,-0.170648,-0.072511
8671,1.024207,-0.029379,-0.122503,-0.052761
8672,1.031631,-0.032536,-0.240079,-0.101719
8673,1.031074,-0.033533,-0.069811,-0.029682
8674,1.031011,-0.033091,-0.809740,-0.260650
8675,1.032611,-0.032208,-0.116224,-0.049578
8676,1.031935,-0.033202,-0.083166,-0.035840
8677,1.024337,-0.028122,-0.174902,-0.074529
8678,1.024051,-0.028702,-0.139361,-0.060507
8679,1.031353,-0.033091,-0.115856,-0.049405
8680,1.032272,-0.032744,-0.240922,-0.101089
8681,1.030301,-0.032890,-0.200816,-0.086562
8682,1.031027,-0.032245,-0.085175,-0.036791
8683,1.023810,-0.028428,-0.061647,-0.025882
8684,1.024194,-0.028951,-0.232326,-0.098074
8685,1.031087,-0.033253,-0.257492,-0.109783
8686,1.031371,-0.032852,-0.075828,-0.032324
8687,1.040399,-0.034566,-0.057073,-0.023943
8688,1.030808,-0.032092,-0.079569,-0.034060
8689,1.033498,-0.032353,0.000049,-0.000018
8690,1.032132,-0.033357,-0.244781,-0.104412
8691,1.033596,-0.033463,-0.132425,-0.057138
8692,1.030582,-0.032585,-0.802739,-0.257488
8693,1.031470,-0.032142,-0.180245,-0.077341
8694,1.032148,-0.031864,-0.265552,-0.113225
8695,1.024293,-0.028266,-0.186162,-0.079650
8696,1.030161,-0.033986,-0.080182,-0.034253
8697,1.030224,-0.033430,-0.093330,-0.039103
8698,1.031864,-0.032851,-0.245808,-0.103968
8699,1.032103,-0.031702,-0.054391,-0.022729
8700,1.031253,-0.032195,-0.230247,-0.096857
8701,1.030784,-0.033337,-0.158166,-0.066676
8702,1.032823,-0.032697,-0.241348,-0.101501
8703,1.032259,-0.032617,-0.061668,-0.025953
8704,1.033206,-0.032993,-0.086064,-0.037072
8705,1.031738,-0.032022,-0.192371,-0.083229
8706,1.023792,-0.028081,-0.187953,-0.080630
8707,1.031510,-0.032187,-0.138432,-0.059963
8708,1.033003,-0.032825,-0.091029,-0.038176
8709,1.030159,-0.032851,-0.245257,-0.103652
8710,1.032687,-0.031828,-0.072347,-0.030722
8711,1.023917,-0.028632,-0.085234,-0.036859
8712,1.029767,-0.033771,-0.074706,-0.031819
8713,1.031522,-0.031999,-0.282284,-0.120572
8714,1.032389,-0.033591,-0.220414,-0.095912
8715,1.032463,-0.032708,-0.128885,-0.055911
8716,1.032891,-0.032670,-0.172473,-0.073335
8717,1.032918,-0.031782,-0.117724,-0.050487
8718,1.032400,-0.032406,-0.337657,-0.146550
8719,1.030990,-0.033261,-0.164850,-0.069992
8720,1.031895,-0.033281,-0.088234,-0.036835
8721,1.029937,-0.033149,-0.076442,-0.032870
8722,1.030511,-0.033698,-0.085540,-0.036997
8723,1.032238,-0.032881,-0.117571,-0.050141
8724,1.031090,-0.032702,-0.105401,-0.044688
8725,1.031723,-0.033549,-0.120826,-0.051718
8726,1.032232,-0.033470,-0.281169,-0.120099
8727,1.032373,-0.032834,-0.052622,-0.022042
8728,1.032938,-0.032809,-0.219714,-0.095877
8729,1.030022,-0.033874,-0.105367,-0.044792
8730,1.032457,-0.032688,-0.122028,-0.052105
8731,1.032597,-0.033505,-0.096039,-0.040346
8732,1.030035,-0.034289,-0.222025,-0.096723
8733,1.032534,-0.032244,-0.130365,-0.056397
8734,1.032270,-0.032030,-0.316050,-0.137109
8735,1.032669,-0.031915,-0.220118,-0.095925
8736,1.033820,-0.032006,-0.072478,-0.030729
8737,1.030380,-0.033927,-0.100517,-0.042402
8738,1.031277,-0.033671,-0.062021,-0.026173
8739,1.033682,-0.032285,-0.184556,-0.079112
8740,1.031533,-0.031524,-0.292074,-0.125280
8741,1.032594,-0.032508,-0.085466,-0.036942
8742,1.031682,-0.032553,-0.126208,-0.054346
8743,1.030487,-0.033965,-0.168214,-0.071177
8744,1.030860,-0.034675,-0.038579,-0.015742
8745,1.032490,-0.033146,-0.115689,-0.049519
8746,1.032505,-0.031541,-0.116471,-0.049639
8747,1.024897,-0.038072,-0.109475,-0.046271
8748,1.025241,-0.037027,-0.150652,-0.063307
8749,1.032756,-0.032045,-0.069469,-0.029432
8750,1.032321,-0.033117,-0.086080,-0.037433
8751,1.025258,-0.037796,-0.062906,-0.026513
8752,1.025453,-0.037654,-0.348498,-0.150624
8753,1.030858,-0.032503,-0.105060,-0.044625
8754,1.031381,-0.032373,-0.088420,-0.036927
8755,1.033396,-0.032506,-0.218822,-0.095081
8756,1.025608,-0.037668,-0.218422,-0.094254
8757,1.031152,-0.032236,-0.082048,-0.035429
8758,1.031769,-0.031958,-0.082305,-0.035553
8759,1.024876,-0.037512,-0.100431,-0.042231
8760,1.031434,-0.032129,-0.079331,-0.034107
8761,1.032113,-0.032998,-0.233256,-0.099412
8762,1.030333,-0.034569,-0.078920,-0.033773
8763,1.030646,-0.031802,-0.183315,-0.078499
8764,1.025427,-0.037729,-0.774605,-0.242329
8765,1.032113,-0.031477,-0.053710,-0.022408
8766,1.031742,-0.032711,-0.221553,-0.096661
8767,1.026499,-0.036972,-0.066131,-0.027988
8768,1.025064,-0.037820,-0.136444,-0.058805
8769,1.025234,-0.036782,-0.274457,-0.116395
8770,1.026363,-0.037924,-0.335009,-0.143856
8771,1.024902,-0.037257,-0.177209,-0.075266
8772,1.025163,-0.037902,-0.091524,-0.038402
8773,1.030739,-0.032939,-0.040109,-0.016518
8774,1.026137,-0.037438,-0.113556,-0.048320
8775,1.031940,-0.032622,-0.177970,-0.076350
8776,1.024854,-0.037956,-0.125902,-0.054015
8777,1.025586,-0.037913,-0.080486,-0.034495
8778,1.026497,-0.037705,-0.089178,-0.037417
8779,1.031566,-0.032469,-0.273579,-0.116908
8780,1.025568,-0.037435,-0.101715,-0.042946
8781,1.030724,-0.032463,-0.134993,-0.058425
8782,1.031130,-0.031330,-0.042867,-0.017662
8783,1.025713,-0.037475,-0.237261,-0.099625
8784,1.025638,-0.038550,-0.042873,-0.017693
8785,1.008654,-0.007915,-0.000042,-0.000014
8786,1.007731,-0.008452,0.000001,-0.000005
8787,1.008533,-0.009205,0.000032,0.000002
8788,1.008956,-0.008119,0.000057,-0.000043
